REMARK VINA RESULT:      -5.9      1.862      8.766
REMARK  5 active torsions:
REMARK  status: ('A' for Active; 'I' for Inactive)
REMARK    1  A    between atoms: C3_3  and  C26_11 
REMARK    2  A    between atoms: C7_7  and  O11_16 
REMARK       I    between atoms: C26_11  and  N28_13 
REMARK    3  A    between atoms: O11_16  and  C12_17 
REMARK    4  A    between atoms: C15_21  and  O24_27 
REMARK    5  A    between atoms: C16_22  and  O22_29 
ROOT
ATOM      1  C1  M00 d   1       1.441 -10.483  13.396  0.00  0.00     0.059 C 
ATOM      2  C2  M00 d   1       0.508  -9.559  12.713  0.00  0.00     0.083 A 
ATOM      3  C3  M00 d   1      -0.718  -9.738  12.088  0.00  0.00     0.076 A 
ATOM      4  C4  M00 d   1      -1.121  -8.433  11.649  0.00  0.00     0.029 A 
ATOM      5  C5  M00 d   1      -2.250  -7.873  11.016  0.00  0.00     0.004 A 
ATOM      6  C6  M00 d   1      -2.267  -6.497  10.743  0.00  0.00     0.025 A 
ATOM      7  C7  M00 d   1      -1.180  -5.691  11.083  0.00  0.00     0.104 A 
ATOM      8  C8  M00 d   1      -0.065  -6.207  11.748  0.00  0.00     0.049 A 
ATOM      9  C9  M00 d   1      -0.084  -7.575  12.004  0.00  0.00     0.102 A 
ATOM     10  O10 M00 d   1       0.898  -8.258  12.647  0.00  0.00    -0.311 OA
ENDROOT
BRANCH   3  11
ATOM     11  C26 M00 d   1      -1.387 -11.025  11.972  0.00  0.00     0.256 C 
ATOM     12  O27 M00 d   1      -1.310 -11.721  10.964  0.00  0.00    -0.268 OA
ATOM     13  N28 M00 d   1      -2.156 -11.377  13.063  0.00  0.00    -0.340 N 
ATOM     14  C29 M00 d   1      -2.986 -12.553  13.026  0.00  0.00     0.124 C 
ATOM     15  H45 M00 d   1      -2.399 -10.643  13.714  0.00  0.00     0.163 HD
ENDBRANCH   3  11
BRANCH   7  16
ATOM     16  O11 M00 d   1      -1.284  -4.341  10.828  0.00  0.00    -0.289 OA
BRANCH  16  17
ATOM     17  C12 M00 d   1      -0.090  -3.632  10.709  0.00  0.00     0.185 A 
ATOM     18  C13 M00 d   1       0.119  -2.585  11.611  0.00  0.00     0.061 A 
ATOM     19  C18 M00 d   1       1.312  -1.888  11.432  0.00  0.00     0.089 A 
ATOM     20  C14 M00 d   1      -0.764  -2.215  12.650  0.00  0.00     0.031 A 
ATOM     21  N19 M00 d   1       2.187  -2.195  10.465  0.00  0.00    -0.224 NA
ATOM     22  C17 M00 d   1       1.597  -0.828  12.287  0.00  0.00     0.045 A 
ATOM     23  C20 M00 d   1       1.870  -3.215   9.653  0.00  0.00     0.201 A 
ATOM     24  N21 M00 d   1       0.763  -3.955   9.715  0.00  0.00    -0.200 NA
ATOM     25  C16 M00 d   1       0.731  -0.440  13.323  0.00  0.00     0.118 A 
ATOM     26  C15 M00 d   1      -0.453  -1.163  13.515  0.00  0.00     0.117 A 
BRANCH  25  27
ATOM     27  O22 M00 d   1       0.965   0.629  14.147  0.00  0.00    -0.326 OA
ATOM     28  C23 M00 d   1       0.912   1.934  13.583  0.00  0.00     0.181 C 
ENDBRANCH  25  27
BRANCH  26  29
ATOM     29  O24 M00 d   1      -1.417  -0.929  14.460  0.00  0.00    -0.326 OA
ATOM     30  C25 M00 d   1      -1.353  -1.732  15.633  0.00  0.00     0.181 C 
ENDBRANCH  26  29
ENDBRANCH  16  17
ENDBRANCH   7  16
TORSDOF 5
