REMARK VINA RESULT:      -5.9      2.178      3.597
REMARK  5 active torsions:
REMARK  status: ('A' for Active; 'I' for Inactive)
REMARK    1  A    between atoms: C3_3  and  C26_11 
REMARK    2  A    between atoms: C7_7  and  O11_16 
REMARK       I    between atoms: C26_11  and  N28_13 
REMARK    3  A    between atoms: O11_16  and  C12_17 
REMARK    4  A    between atoms: C15_21  and  O24_27 
REMARK    5  A    between atoms: C16_22  and  O22_29 
ROOT
ATOM      1  C1  M00 d   1      -1.351  -0.267  15.202  0.00  0.00     0.059 C 
ATOM      2  C2  M00 d   1      -0.885  -1.019  14.016  0.00  0.00     0.083 A 
ATOM      3  C3  M00 d   1      -0.021  -0.711  12.976  0.00  0.00     0.076 A 
ATOM      4  C4  M00 d   1       0.030  -1.888  12.156  0.00  0.00     0.029 A 
ATOM      5  C5  M00 d   1       0.731  -2.297  11.001  0.00  0.00     0.004 A 
ATOM      6  C6  M00 d   1       0.495  -3.578  10.479  0.00  0.00     0.025 A 
ATOM      7  C7  M00 d   1      -0.426  -4.434  11.083  0.00  0.00     0.104 A 
ATOM      8  C8  M00 d   1      -1.104  -4.075  12.251  0.00  0.00     0.049 A 
ATOM      9  C9  M00 d   1      -0.843  -2.798  12.742  0.00  0.00     0.102 A 
ATOM     10  O10 M00 d   1      -1.394  -2.271  13.866  0.00  0.00    -0.311 OA
ENDROOT
BRANCH   3  11
ATOM     11  C26 M00 d   1       0.664   0.566  12.843  0.00  0.00     0.256 C 
ATOM     12  O27 M00 d   1       0.063   1.623  12.677  0.00  0.00    -0.268 OA
ATOM     13  N28 M00 d   1       2.041   0.489  12.867  0.00  0.00    -0.340 N 
ATOM     14  C29 M00 d   1       2.846   1.653  12.603  0.00  0.00     0.124 C 
ATOM     15  H45 M00 d   1       2.457  -0.420  12.717  0.00  0.00     0.163 HD
ENDBRANCH   3  11
BRANCH   7  16
ATOM     16  O11 M00 d   1      -0.572  -5.693  10.545  0.00  0.00    -0.289 OA
BRANCH  16  17
ATOM     17  C12 M00 d   1      -0.319  -6.771  11.393  0.00  0.00     0.185 A 
ATOM     18  C13 M00 d   1       0.917  -7.410  11.254  0.00  0.00     0.061 A 
ATOM     19  C18 M00 d   1       1.110  -8.499  12.102  0.00  0.00     0.089 A 
ATOM     20  C14 M00 d   1       1.935  -7.031  10.353  0.00  0.00     0.031 A 
ATOM     21  N19 M00 d   1       0.180  -8.904  12.978  0.00  0.00    -0.224 NA
ATOM     22  C17 M00 d   1       2.313  -9.195  12.027  0.00  0.00     0.045 A 
ATOM     23  C20 M00 d   1      -0.971  -8.216  13.010  0.00  0.00     0.201 A 
ATOM     24  N21 M00 d   1      -1.281  -7.164  12.252  0.00  0.00    -0.200 NA
ATOM     25  C16 M00 d   1       3.336  -8.837  11.134  0.00  0.00     0.118 A 
ATOM     26  C15 M00 d   1       3.147  -7.724  10.305  0.00  0.00     0.117 A 
BRANCH  25  27
ATOM     27  O22 M00 d   1       4.509  -9.533  11.007  0.00  0.00    -0.326 OA
ATOM     28  C23 M00 d   1       5.566  -9.237  11.913  0.00  0.00     0.181 C 
ENDBRANCH  25  27
BRANCH  26  29
ATOM     29  O24 M00 d   1       4.022  -7.233   9.372  0.00  0.00    -0.326 OA
ATOM     30  C25 M00 d   1       4.834  -6.141   9.788  0.00  0.00     0.181 C 
ENDBRANCH  26  29
ENDBRANCH  16  17
ENDBRANCH   7  16
TORSDOF 5
