REMARK VINA RESULT:      -6.0      3.633      5.499
REMARK  5 active torsions:
REMARK  status: ('A' for Active; 'I' for Inactive)
REMARK    1  A    between atoms: C3_3  and  C26_11 
REMARK    2  A    between atoms: C7_7  and  O11_16 
REMARK       I    between atoms: C26_11  and  N28_13 
REMARK    3  A    between atoms: O11_16  and  C12_17 
REMARK    4  A    between atoms: C15_21  and  O24_27 
REMARK    5  A    between atoms: C16_22  and  O22_29 
ROOT
ATOM      1  C1  M00 d   1       5.845  -7.327   9.994  0.00  0.00     0.059 C 
ATOM      2  C2  M00 d   1       4.773  -6.309   9.940  0.00  0.00     0.083 A 
ATOM      3  C3  M00 d   1       4.737  -4.989   9.516  0.00  0.00     0.076 A 
ATOM      4  C4  M00 d   1       3.379  -4.562   9.699  0.00  0.00     0.029 A 
ATOM      5  C5  M00 d   1       2.632  -3.395   9.432  0.00  0.00     0.004 A 
ATOM      6  C6  M00 d   1       1.271  -3.364   9.773  0.00  0.00     0.025 A 
ATOM      7  C7  M00 d   1       0.664  -4.465  10.377  0.00  0.00     0.104 A 
ATOM      8  C8  M00 d   1       1.365  -5.649  10.616  0.00  0.00     0.049 A 
ATOM      9  C9  M00 d   1       2.712  -5.645  10.263  0.00  0.00     0.102 A 
ATOM     10  O10 M00 d   1       3.556  -6.699  10.407  0.00  0.00    -0.311 OA
ENDROOT
BRANCH   3  11
ATOM     11  C26 M00 d   1       5.891  -4.277   8.987  0.00  0.00     0.256 C 
ATOM     12  O27 M00 d   1       6.199  -3.150   9.361  0.00  0.00    -0.268 OA
ATOM     13  N28 M00 d   1       6.580  -4.948   7.997  0.00  0.00    -0.340 N 
ATOM     14  C29 M00 d   1       7.653  -4.304   7.285  0.00  0.00     0.124 C 
ATOM     15  H45 M00 d   1       6.109  -5.722   7.549  0.00  0.00     0.163 HD
ENDBRANCH   3  11
BRANCH   7  16
ATOM     16  O11 M00 d   1      -0.685  -4.382  10.641  0.00  0.00    -0.289 OA
BRANCH  16  17
ATOM     17  C12 M00 d   1      -1.078  -4.574  11.965  0.00  0.00     0.185 A 
ATOM     18  C13 M00 d   1      -1.788  -5.744  12.252  0.00  0.00     0.061 A 
ATOM     19  C18 M00 d   1      -2.184  -5.875  13.582  0.00  0.00     0.089 A 
ATOM     20  C14 M00 d   1      -2.107  -6.755  11.319  0.00  0.00     0.031 A 
ATOM     21  N19 M00 d   1      -1.909  -4.949  14.510  0.00  0.00    -0.224 NA
ATOM     22  C17 M00 d   1      -2.899  -7.010  13.953  0.00  0.00     0.045 A 
ATOM     23  C20 M00 d   1      -1.229  -3.864  14.110  0.00  0.00     0.201 A 
ATOM     24  N21 M00 d   1      -0.800  -3.616  12.872  0.00  0.00    -0.200 NA
ATOM     25  C16 M00 d   1      -3.230  -8.025  13.040  0.00  0.00     0.118 A 
ATOM     26  C15 M00 d   1      -2.805  -7.899  11.711  0.00  0.00     0.117 A 
BRANCH  25  27
ATOM     27  O22 M00 d   1      -3.974  -9.127  13.369  0.00  0.00    -0.326 OA
ATOM     28  C23 M00 d   1      -3.299 -10.251  13.921  0.00  0.00     0.181 C 
ENDBRANCH  25  27
BRANCH  26  29
ATOM     29  O24 M00 d   1      -3.040  -8.776  10.685  0.00  0.00    -0.326 OA
ATOM     30  C25 M00 d   1      -4.037  -8.388   9.747  0.00  0.00     0.181 C 
ENDBRANCH  26  29
ENDBRANCH  16  17
ENDBRANCH   7  16
TORSDOF 5
