REMARK VINA RESULT:      -5.6      7.643      9.995
REMARK  5 active torsions:
REMARK  status: ('A' for Active; 'I' for Inactive)
REMARK    1  A    between atoms: C3_3  and  C26_11 
REMARK    2  A    between atoms: C7_7  and  O11_16 
REMARK       I    between atoms: C26_11  and  N28_13 
REMARK    3  A    between atoms: O11_16  and  C12_17 
REMARK    4  A    between atoms: C15_21  and  O24_27 
REMARK    5  A    between atoms: C16_22  and  O22_29 
ROOT
ATOM      1  C1  M00 d   1       9.867  -4.307   3.641  0.00  0.00     0.059 C 
ATOM      2  C2  M00 d   1       9.390  -3.862   4.970  0.00  0.00     0.083 A 
ATOM      3  C3  M00 d   1       9.377  -2.633   5.611  0.00  0.00     0.076 A 
ATOM      4  C4  M00 d   1       8.749  -2.867   6.880  0.00  0.00     0.029 A 
ATOM      5  C5  M00 d   1       8.360  -2.082   7.986  0.00  0.00     0.004 A 
ATOM      6  C6  M00 d   1       7.749  -2.706   9.085  0.00  0.00     0.025 A 
ATOM      7  C7  M00 d   1       7.536  -4.085   9.091  0.00  0.00     0.104 A 
ATOM      8  C8  M00 d   1       7.872  -4.884   7.995  0.00  0.00     0.049 A 
ATOM      9  C9  M00 d   1       8.473  -4.230   6.922  0.00  0.00     0.102 A 
ATOM     10  O10 M00 d   1       8.861  -4.829   5.767  0.00  0.00    -0.311 OA
ENDROOT
BRANCH   3  11
ATOM     11  C26 M00 d   1       9.899  -1.408   5.024  0.00  0.00     0.256 C 
ATOM     12  O27 M00 d   1       9.186  -0.605   4.429  0.00  0.00    -0.268 OA
ATOM     13  N28 M00 d   1      11.263  -1.244   5.146  0.00  0.00    -0.340 N 
ATOM     14  C29 M00 d   1      11.933  -0.152   4.488  0.00  0.00     0.124 C 
ATOM     15  H45 M00 d   1      11.808  -2.062   5.383  0.00  0.00     0.163 HD
ENDBRANCH   3  11
BRANCH   7  16
ATOM     16  O11 M00 d   1       6.889  -4.624  10.181  0.00  0.00    -0.289 OA
BRANCH  16  17
ATOM     17  C12 M00 d   1       5.678  -5.269   9.935  0.00  0.00     0.185 A 
ATOM     18  C13 M00 d   1       4.517  -4.496  10.024  0.00  0.00     0.061 A 
ATOM     19  C18 M00 d   1       3.331  -5.193   9.799  0.00  0.00     0.089 A 
ATOM     20  C14 M00 d   1       4.478  -3.113  10.307  0.00  0.00     0.031 A 
ATOM     21  N19 M00 d   1       3.308  -6.505   9.526  0.00  0.00    -0.224 NA
ATOM     22  C17 M00 d   1       2.128  -4.498   9.872  0.00  0.00     0.045 A 
ATOM     23  C20 M00 d   1       4.488  -7.141   9.478  0.00  0.00     0.201 A 
ATOM     24  N21 M00 d   1       5.687  -6.593   9.678  0.00  0.00    -0.200 NA
ATOM     25  C16 M00 d   1       2.067  -3.124  10.157  0.00  0.00     0.118 A 
ATOM     26  C15 M00 d   1       3.264  -2.424  10.353  0.00  0.00     0.117 A 
BRANCH  25  27
ATOM     27  O22 M00 d   1       0.894  -2.427  10.281  0.00  0.00    -0.326 OA
ATOM     28  C23 M00 d   1       0.171  -2.545  11.501  0.00  0.00     0.181 C 
ENDBRANCH  25  27
BRANCH  26  29
ATOM     29  O24 M00 d   1       3.401  -1.093  10.648  0.00  0.00    -0.326 OA
ATOM     30  C25 M00 d   1       4.731  -0.587  10.657  0.00  0.00     0.181 C 
ENDBRANCH  26  29
ENDBRANCH  16  17
ENDBRANCH   7  16
TORSDOF 5
