REMARK VINA RESULT:      -5.7      3.250      4.801
REMARK  5 active torsions:
REMARK  status: ('A' for Active; 'I' for Inactive)
REMARK    1  A    between atoms: C3_3  and  C26_11 
REMARK    2  A    between atoms: C7_7  and  O11_16 
REMARK       I    between atoms: C26_11  and  N28_13 
REMARK    3  A    between atoms: O11_16  and  C12_17 
REMARK    4  A    between atoms: C15_21  and  O24_27 
REMARK    5  A    between atoms: C16_22  and  O22_29 
ROOT
ATOM      1  C1  M00 d   1       3.837  -1.359  10.633  0.00  0.00     0.059 C 
ATOM      2  C2  M00 d   1       3.175  -2.682  10.688  0.00  0.00     0.083 A 
ATOM      3  C3  M00 d   1       3.474  -3.917  10.133  0.00  0.00     0.076 A 
ATOM      4  C4  M00 d   1       2.445  -4.805  10.593  0.00  0.00     0.029 A 
ATOM      5  C5  M00 d   1       2.158  -6.182  10.475  0.00  0.00     0.004 A 
ATOM      6  C6  M00 d   1       1.007  -6.694  11.093  0.00  0.00     0.025 A 
ATOM      7  C7  M00 d   1       0.151  -5.856  11.809  0.00  0.00     0.104 A 
ATOM      8  C8  M00 d   1       0.429  -4.497  11.979  0.00  0.00     0.049 A 
ATOM      9  C9  M00 d   1       1.580  -4.025  11.354  0.00  0.00     0.102 A 
ATOM     10  O10 M00 d   1       2.024  -2.743  11.410  0.00  0.00    -0.311 OA
ENDROOT
BRANCH   3  11
ATOM     11  C26 M00 d   1       4.631  -4.165   9.286  0.00  0.00     0.256 C 
ATOM     12  O27 M00 d   1       4.530  -4.467   8.101  0.00  0.00    -0.268 OA
ATOM     13  N28 M00 d   1       5.848  -4.085   9.933  0.00  0.00    -0.340 N 
ATOM     14  C29 M00 d   1       7.064  -4.448   9.254  0.00  0.00     0.124 C 
ATOM     15  H45 M00 d   1       5.838  -4.120  10.943  0.00  0.00     0.163 HD
ENDBRANCH   3  11
BRANCH   7  16
ATOM     16  O11 M00 d   1      -0.933  -6.435  12.430  0.00  0.00    -0.289 OA
BRANCH  16  17
ATOM     17  C12 M00 d   1      -1.717  -7.289  11.655  0.00  0.00     0.185 A 
ATOM     18  C13 M00 d   1      -1.612  -8.658  11.917  0.00  0.00     0.061 A 
ATOM     19  C18 M00 d   1      -2.392  -9.472  11.097  0.00  0.00     0.089 A 
ATOM     20  C14 M00 d   1      -0.805  -9.237  12.921  0.00  0.00     0.031 A 
ATOM     21  N19 M00 d   1      -3.177  -8.978  10.130  0.00  0.00    -0.224 NA
ATOM     22  C17 M00 d   1      -2.344 -10.849  11.289  0.00  0.00     0.045 A 
ATOM     23  C20 M00 d   1      -3.185  -7.646   9.968  0.00  0.00     0.201 A 
ATOM     24  N21 M00 d   1      -2.484  -6.762  10.679  0.00  0.00    -0.200 NA
ATOM     25  C16 M00 d   1      -1.545 -11.445  12.278  0.00  0.00     0.118 A 
ATOM     26  C15 M00 d   1      -0.785 -10.620  13.117  0.00  0.00     0.117 A 
BRANCH  25  27
ATOM     27  O22 M00 d   1      -1.443 -12.800  12.455  0.00  0.00    -0.326 OA
ATOM     28  C23 M00 d   1      -1.508 -13.308  13.783  0.00  0.00     0.181 C 
ENDBRANCH  25  27
BRANCH  26  29
ATOM     29  O24 M00 d   1       0.054 -11.018  14.124  0.00  0.00    -0.326 OA
ATOM     30  C25 M00 d   1       1.444 -10.805  13.902  0.00  0.00     0.181 C 
ENDBRANCH  26  29
ENDBRANCH  16  17
ENDBRANCH   7  16
TORSDOF 5
