REMARK VINA RESULT:      -6.3      1.807      2.786
REMARK  5 active torsions:
REMARK  status: ('A' for Active; 'I' for Inactive)
REMARK    1  A    between atoms: C3_3  and  C26_11 
REMARK    2  A    between atoms: C7_7  and  O11_16 
REMARK       I    between atoms: C26_11  and  N28_13 
REMARK    3  A    between atoms: O11_16  and  C12_17 
REMARK    4  A    between atoms: C15_21  and  O24_27 
REMARK    5  A    between atoms: C16_22  and  O22_29 
ROOT
ATOM      1  C1  M00 d   1      -1.721  -1.313  14.714  0.00  0.00     0.059 C 
ATOM      2  C2  M00 d   1      -1.013  -2.117  13.693  0.00  0.00     0.083 A 
ATOM      3  C3  M00 d   1      -0.018  -1.820  12.773  0.00  0.00     0.076 A 
ATOM      4  C4  M00 d   1       0.255  -3.052  12.090  0.00  0.00     0.029 A 
ATOM      5  C5  M00 d   1       1.162  -3.492  11.103  0.00  0.00     0.004 A 
ATOM      6  C6  M00 d   1       1.113  -4.829  10.678  0.00  0.00     0.025 A 
ATOM      7  C7  M00 d   1       0.175  -5.712  11.215  0.00  0.00     0.104 A 
ATOM      8  C8  M00 d   1      -0.709  -5.318  12.223  0.00  0.00     0.049 A 
ATOM      9  C9  M00 d   1      -0.630  -3.986  12.621  0.00  0.00     0.102 A 
ATOM     10  O10 M00 d   1      -1.394  -3.419  13.589  0.00  0.00    -0.311 OA
ENDROOT
BRANCH   3  11
ATOM     11  C26 M00 d   1       0.578  -0.502  12.623  0.00  0.00     0.256 C 
ATOM     12  O27 M00 d   1      -0.070   0.481  12.278  0.00  0.00    -0.268 OA
ATOM     13  N28 M00 d   1       1.939  -0.454  12.850  0.00  0.00    -0.340 N 
ATOM     14  C29 M00 d   1       2.682   0.753  12.597  0.00  0.00     0.124 C 
ATOM     15  H45 M00 d   1       2.440  -1.332  12.843  0.00  0.00     0.163 HD
ENDBRANCH   3  11
BRANCH   7  16
ATOM     16  O11 M00 d   1       0.215  -7.020  10.786  0.00  0.00    -0.289 OA
BRANCH  16  17
ATOM     17  C12 M00 d   1      -1.010  -7.673  10.653  0.00  0.00     0.185 A 
ATOM     18  C13 M00 d   1      -1.101  -8.963  11.184  0.00  0.00     0.061 A 
ATOM     19  C18 M00 d   1      -2.335  -9.585  10.999  0.00  0.00     0.089 A 
ATOM     20  C14 M00 d   1      -0.068  -9.638  11.870  0.00  0.00     0.031 A 
ATOM     21  N19 M00 d   1      -3.350  -8.993  10.357  0.00  0.00    -0.224 NA
ATOM     22  C17 M00 d   1      -2.510 -10.874  11.495  0.00  0.00     0.045 A 
ATOM     23  C20 M00 d   1      -3.138  -7.757   9.883  0.00  0.00     0.201 A 
ATOM     24  N21 M00 d   1      -2.008  -7.057   9.988  0.00  0.00    -0.200 NA
ATOM     25  C16 M00 d   1      -1.493 -11.564  12.175  0.00  0.00     0.118 A 
ATOM     26  C15 M00 d   1      -0.266 -10.922  12.383  0.00  0.00     0.117 A 
BRANCH  25  27
ATOM     27  O22 M00 d   1      -1.624 -12.850  12.630  0.00  0.00    -0.326 OA
ATOM     28  C23 M00 d   1      -2.847 -13.218  13.258  0.00  0.00     0.181 C 
ENDBRANCH  25  27
BRANCH  26  29
ATOM     29  O24 M00 d   1       0.837 -11.437  13.012  0.00  0.00    -0.326 OA
ATOM     30  C25 M00 d   1       0.973 -11.122  14.393  0.00  0.00     0.181 C 
ENDBRANCH  26  29
ENDBRANCH  16  17
ENDBRANCH   7  16
TORSDOF 5
