MODEL 1
REMARK VINA RESULT:      -6.9      0.000      0.000
REMARK  5 active torsions:
REMARK  status: ('A' for Active; 'I' for Inactive)
REMARK    1  A    between atoms: C3_3  and  C26_11 
REMARK    2  A    between atoms: C7_7  and  O11_16 
REMARK       I    between atoms: C26_11  and  N28_13 
REMARK    3  A    between atoms: O11_16  and  C12_17 
REMARK    4  A    between atoms: C15_21  and  O24_27 
REMARK    5  A    between atoms: C16_22  and  O22_29 
ROOT
ATOM      1  C1  M00 d   1      -1.596  -0.333  15.285  0.00  0.00     0.059 C 
ATOM      2  C2  M00 d   1      -1.068  -1.036  14.095  0.00  0.00     0.083 A 
ATOM      3  C3  M00 d   1      -0.224  -0.653  13.063  0.00  0.00     0.076 A 
ATOM      4  C4  M00 d   1      -0.079  -1.815  12.233  0.00  0.00     0.029 A 
ATOM      5  C5  M00 d   1       0.657  -2.160  11.080  0.00  0.00     0.004 A 
ATOM      6  C6  M00 d   1       0.523  -3.450  10.544  0.00  0.00     0.025 A 
ATOM      7  C7  M00 d   1      -0.332  -4.380  11.136  0.00  0.00     0.104 A 
ATOM      8  C8  M00 d   1      -1.043  -4.084  12.303  0.00  0.00     0.049 A 
ATOM      9  C9  M00 d   1      -0.883  -2.795  12.806  0.00  0.00     0.102 A 
ATOM     10  O10 M00 d   1      -1.479  -2.322  13.931  0.00  0.00    -0.311 OA
ENDROOT
BRANCH   3  11
ATOM     11  C26 M00 d   1       0.361   0.674  12.945  0.00  0.00     0.256 C 
ATOM     12  O27 M00 d   1      -0.310   1.672  12.702  0.00  0.00    -0.268 OA
ATOM     13  N28 M00 d   1       1.734   0.714  13.077  0.00  0.00    -0.340 N 
ATOM     14  C29 M00 d   1       2.459   1.935  12.841  0.00  0.00     0.124 C 
ATOM     15  H45 M00 d   1       2.234  -0.161  12.986  0.00  0.00     0.163 HD
ENDBRANCH   3  11
BRANCH   7  16
ATOM     16  O11 M00 d   1      -0.379  -5.641  10.587  0.00  0.00    -0.289 OA
BRANCH  16  17
ATOM     17  C12 M00 d   1       0.255  -6.659  11.298  0.00  0.00     0.185 A 
ATOM     18  C13 M00 d   1      -0.410  -7.886  11.378  0.00  0.00     0.061 A 
ATOM     19  C18 M00 d   1       0.249  -8.861  12.124  0.00  0.00     0.089 A 
ATOM     20  C14 M00 d   1      -1.649  -8.184  10.769  0.00  0.00     0.031 A 
ATOM     21  N19 M00 d   1       1.427  -8.636  12.723  0.00  0.00    -0.224 NA
ATOM     22  C17 M00 d   1      -0.346 -10.112  12.257  0.00  0.00     0.045 A 
ATOM     23  C20 M00 d   1       1.961  -7.414  12.582  0.00  0.00     0.201 A 
ATOM     24  N21 M00 d   1       1.432  -6.396  11.902  0.00  0.00    -0.200 NA
ATOM     25  C16 M00 d   1      -1.580 -10.426  11.664  0.00  0.00     0.118 A 
ATOM     26  C15 M00 d   1      -2.224  -9.451  10.892  0.00  0.00     0.117 A 
BRANCH  25  27
ATOM     27  O22 M00 d   1      -2.210 -11.633  11.819  0.00  0.00    -0.326 OA
ATOM     28  C23 M00 d   1      -2.644 -12.000  13.124  0.00  0.00     0.181 C 
ENDBRANCH  25  27
BRANCH  26  29
ATOM     29  O24 M00 d   1      -3.428  -9.571  10.249  0.00  0.00    -0.326 OA
ATOM     30  C25 M00 d   1      -3.928  -8.391   9.631  0.00  0.00     0.181 C 
ENDBRANCH  26  29
ENDBRANCH  16  17
ENDBRANCH   7  16
TORSDOF 5
ENDMDL
MODEL 2
REMARK VINA RESULT:      -6.4      2.736      8.821
REMARK  5 active torsions:
REMARK  status: ('A' for Active; 'I' for Inactive)
REMARK    1  A    between atoms: C3_3  and  C26_11 
REMARK    2  A    between atoms: C7_7  and  O11_16 
REMARK       I    between atoms: C26_11  and  N28_13 
REMARK    3  A    between atoms: O11_16  and  C12_17 
REMARK    4  A    between atoms: C15_21  and  O24_27 
REMARK    5  A    between atoms: C16_22  and  O22_29 
ROOT
ATOM      1  C1  M00 d   1       1.311 -11.572  13.679  0.00  0.00     0.059 C 
ATOM      2  C2  M00 d   1       0.325 -10.742  12.952  0.00  0.00     0.083 A 
ATOM      3  C3  M00 d   1      -0.974 -10.969  12.521  0.00  0.00     0.076 A 
ATOM      4  C4  M00 d   1      -1.393  -9.746  11.899  0.00  0.00     0.029 A 
ATOM      5  C5  M00 d   1      -2.577  -9.254  11.311  0.00  0.00     0.004 A 
ATOM      6  C6  M00 d   1      -2.591  -7.950  10.792  0.00  0.00     0.025 A 
ATOM      7  C7  M00 d   1      -1.448  -7.151  10.846  0.00  0.00     0.104 A 
ATOM      8  C8  M00 d   1      -0.273  -7.593  11.458  0.00  0.00     0.049 A 
ATOM      9  C9  M00 d   1      -0.297  -8.891  11.964  0.00  0.00     0.102 A 
ATOM     10  O10 M00 d   1       0.739  -9.495  12.602  0.00  0.00    -0.311 OA
ENDROOT
BRANCH   3  11
ATOM     11  C26 M00 d   1      -1.687 -12.221  12.725  0.00  0.00     0.256 C 
ATOM     12  O27 M00 d   1      -1.388 -13.255  12.136  0.00  0.00    -0.268 OA
ATOM     13  N28 M00 d   1      -2.757 -12.141  13.592  0.00  0.00    -0.340 N 
ATOM     14  C29 M00 d   1      -3.638 -13.266  13.776  0.00  0.00     0.124 C 
ATOM     15  H45 M00 d   1      -3.112 -11.219  13.806  0.00  0.00     0.163 HD
ENDBRANCH   3  11
BRANCH   7  16
ATOM     16  O11 M00 d   1      -1.547  -5.866  10.360  0.00  0.00    -0.289 OA
BRANCH  16  17
ATOM     17  C12 M00 d   1      -1.415  -4.833  11.287  0.00  0.00     0.185 A 
ATOM     18  C13 M00 d   1      -0.280  -4.024  11.179  0.00  0.00     0.061 A 
ATOM     19  C18 M00 d   1      -0.180  -3.026  12.146  0.00  0.00     0.089 A 
ATOM     20  C14 M00 d   1       0.718  -4.149  10.188  0.00  0.00     0.031 A 
ATOM     21  N19 M00 d   1      -1.097  -2.860  13.108  0.00  0.00    -0.224 NA
ATOM     22  C17 M00 d   1       0.923  -2.177  12.111  0.00  0.00     0.045 A 
ATOM     23  C20 M00 d   1      -2.137  -3.707  13.115  0.00  0.00     0.201 A 
ATOM     24  N21 M00 d   1      -2.347  -4.703  12.253  0.00  0.00    -0.200 NA
ATOM     25  C16 M00 d   1       1.929  -2.287  11.139  0.00  0.00     0.118 A 
ATOM     26  C15 M00 d   1       1.807  -3.274  10.152  0.00  0.00     0.117 A 
BRANCH  25  27
ATOM     27  O22 M00 d   1       3.047  -1.496  11.112  0.00  0.00    -0.326 OA
ATOM     28  C23 M00 d   1       4.140  -1.851  11.950  0.00  0.00     0.181 C 
ENDBRANCH  25  27
BRANCH  26  29
ATOM     29  O24 M00 d   1       2.687  -3.537   9.136  0.00  0.00    -0.326 OA
ATOM     30  C25 M00 d   1       3.487  -4.704   9.286  0.00  0.00     0.181 C 
ENDBRANCH  26  29
ENDBRANCH  16  17
ENDBRANCH   7  16
TORSDOF 5
ENDMDL
MODEL 3
REMARK VINA RESULT:      -6.3      1.807      2.786
REMARK  5 active torsions:
REMARK  status: ('A' for Active; 'I' for Inactive)
REMARK    1  A    between atoms: C3_3  and  C26_11 
REMARK    2  A    between atoms: C7_7  and  O11_16 
REMARK       I    between atoms: C26_11  and  N28_13 
REMARK    3  A    between atoms: O11_16  and  C12_17 
REMARK    4  A    between atoms: C15_21  and  O24_27 
REMARK    5  A    between atoms: C16_22  and  O22_29 
ROOT
ATOM      1  C1  M00 d   1      -1.721  -1.313  14.714  0.00  0.00     0.059 C 
ATOM      2  C2  M00 d   1      -1.013  -2.117  13.693  0.00  0.00     0.083 A 
ATOM      3  C3  M00 d   1      -0.018  -1.820  12.773  0.00  0.00     0.076 A 
ATOM      4  C4  M00 d   1       0.255  -3.052  12.090  0.00  0.00     0.029 A 
ATOM      5  C5  M00 d   1       1.162  -3.492  11.103  0.00  0.00     0.004 A 
ATOM      6  C6  M00 d   1       1.113  -4.829  10.678  0.00  0.00     0.025 A 
ATOM      7  C7  M00 d   1       0.175  -5.712  11.215  0.00  0.00     0.104 A 
ATOM      8  C8  M00 d   1      -0.709  -5.318  12.223  0.00  0.00     0.049 A 
ATOM      9  C9  M00 d   1      -0.630  -3.986  12.621  0.00  0.00     0.102 A 
ATOM     10  O10 M00 d   1      -1.394  -3.419  13.589  0.00  0.00    -0.311 OA
ENDROOT
BRANCH   3  11
ATOM     11  C26 M00 d   1       0.578  -0.502  12.623  0.00  0.00     0.256 C 
ATOM     12  O27 M00 d   1      -0.070   0.481  12.278  0.00  0.00    -0.268 OA
ATOM     13  N28 M00 d   1       1.939  -0.454  12.850  0.00  0.00    -0.340 N 
ATOM     14  C29 M00 d   1       2.682   0.753  12.597  0.00  0.00     0.124 C 
ATOM     15  H45 M00 d   1       2.440  -1.332  12.843  0.00  0.00     0.163 HD
ENDBRANCH   3  11
BRANCH   7  16
ATOM     16  O11 M00 d   1       0.215  -7.020  10.786  0.00  0.00    -0.289 OA
BRANCH  16  17
ATOM     17  C12 M00 d   1      -1.010  -7.673  10.653  0.00  0.00     0.185 A 
ATOM     18  C13 M00 d   1      -1.101  -8.963  11.184  0.00  0.00     0.061 A 
ATOM     19  C18 M00 d   1      -2.335  -9.585  10.999  0.00  0.00     0.089 A 
ATOM     20  C14 M00 d   1      -0.068  -9.638  11.870  0.00  0.00     0.031 A 
ATOM     21  N19 M00 d   1      -3.350  -8.993  10.357  0.00  0.00    -0.224 NA
ATOM     22  C17 M00 d   1      -2.510 -10.874  11.495  0.00  0.00     0.045 A 
ATOM     23  C20 M00 d   1      -3.138  -7.757   9.883  0.00  0.00     0.201 A 
ATOM     24  N21 M00 d   1      -2.008  -7.057   9.988  0.00  0.00    -0.200 NA
ATOM     25  C16 M00 d   1      -1.493 -11.564  12.175  0.00  0.00     0.118 A 
ATOM     26  C15 M00 d   1      -0.266 -10.922  12.383  0.00  0.00     0.117 A 
BRANCH  25  27
ATOM     27  O22 M00 d   1      -1.624 -12.850  12.630  0.00  0.00    -0.326 OA
ATOM     28  C23 M00 d   1      -2.847 -13.218  13.258  0.00  0.00     0.181 C 
ENDBRANCH  25  27
BRANCH  26  29
ATOM     29  O24 M00 d   1       0.837 -11.437  13.012  0.00  0.00    -0.326 OA
ATOM     30  C25 M00 d   1       0.973 -11.122  14.393  0.00  0.00     0.181 C 
ENDBRANCH  26  29
ENDBRANCH  16  17
ENDBRANCH   7  16
TORSDOF 5
ENDMDL
MODEL 4
REMARK VINA RESULT:      -6.0      3.633      5.499
REMARK  5 active torsions:
REMARK  status: ('A' for Active; 'I' for Inactive)
REMARK    1  A    between atoms: C3_3  and  C26_11 
REMARK    2  A    between atoms: C7_7  and  O11_16 
REMARK       I    between atoms: C26_11  and  N28_13 
REMARK    3  A    between atoms: O11_16  and  C12_17 
REMARK    4  A    between atoms: C15_21  and  O24_27 
REMARK    5  A    between atoms: C16_22  and  O22_29 
ROOT
ATOM      1  C1  M00 d   1       5.845  -7.327   9.994  0.00  0.00     0.059 C 
ATOM      2  C2  M00 d   1       4.773  -6.309   9.940  0.00  0.00     0.083 A 
ATOM      3  C3  M00 d   1       4.737  -4.989   9.516  0.00  0.00     0.076 A 
ATOM      4  C4  M00 d   1       3.379  -4.562   9.699  0.00  0.00     0.029 A 
ATOM      5  C5  M00 d   1       2.632  -3.395   9.432  0.00  0.00     0.004 A 
ATOM      6  C6  M00 d   1       1.271  -3.364   9.773  0.00  0.00     0.025 A 
ATOM      7  C7  M00 d   1       0.664  -4.465  10.377  0.00  0.00     0.104 A 
ATOM      8  C8  M00 d   1       1.365  -5.649  10.616  0.00  0.00     0.049 A 
ATOM      9  C9  M00 d   1       2.712  -5.645  10.263  0.00  0.00     0.102 A 
ATOM     10  O10 M00 d   1       3.556  -6.699  10.407  0.00  0.00    -0.311 OA
ENDROOT
BRANCH   3  11
ATOM     11  C26 M00 d   1       5.891  -4.277   8.987  0.00  0.00     0.256 C 
ATOM     12  O27 M00 d   1       6.199  -3.150   9.361  0.00  0.00    -0.268 OA
ATOM     13  N28 M00 d   1       6.580  -4.948   7.997  0.00  0.00    -0.340 N 
ATOM     14  C29 M00 d   1       7.653  -4.304   7.285  0.00  0.00     0.124 C 
ATOM     15  H45 M00 d   1       6.109  -5.722   7.549  0.00  0.00     0.163 HD
ENDBRANCH   3  11
BRANCH   7  16
ATOM     16  O11 M00 d   1      -0.685  -4.382  10.641  0.00  0.00    -0.289 OA
BRANCH  16  17
ATOM     17  C12 M00 d   1      -1.078  -4.574  11.965  0.00  0.00     0.185 A 
ATOM     18  C13 M00 d   1      -1.788  -5.744  12.252  0.00  0.00     0.061 A 
ATOM     19  C18 M00 d   1      -2.184  -5.875  13.582  0.00  0.00     0.089 A 
ATOM     20  C14 M00 d   1      -2.107  -6.755  11.319  0.00  0.00     0.031 A 
ATOM     21  N19 M00 d   1      -1.909  -4.949  14.510  0.00  0.00    -0.224 NA
ATOM     22  C17 M00 d   1      -2.899  -7.010  13.953  0.00  0.00     0.045 A 
ATOM     23  C20 M00 d   1      -1.229  -3.864  14.110  0.00  0.00     0.201 A 
ATOM     24  N21 M00 d   1      -0.800  -3.616  12.872  0.00  0.00    -0.200 NA
ATOM     25  C16 M00 d   1      -3.230  -8.025  13.040  0.00  0.00     0.118 A 
ATOM     26  C15 M00 d   1      -2.805  -7.899  11.711  0.00  0.00     0.117 A 
BRANCH  25  27
ATOM     27  O22 M00 d   1      -3.974  -9.127  13.369  0.00  0.00    -0.326 OA
ATOM     28  C23 M00 d   1      -3.299 -10.251  13.921  0.00  0.00     0.181 C 
ENDBRANCH  25  27
BRANCH  26  29
ATOM     29  O24 M00 d   1      -3.040  -8.776  10.685  0.00  0.00    -0.326 OA
ATOM     30  C25 M00 d   1      -4.037  -8.388   9.747  0.00  0.00     0.181 C 
ENDBRANCH  26  29
ENDBRANCH  16  17
ENDBRANCH   7  16
TORSDOF 5
ENDMDL
MODEL 5
REMARK VINA RESULT:      -5.9      2.178      3.597
REMARK  5 active torsions:
REMARK  status: ('A' for Active; 'I' for Inactive)
REMARK    1  A    between atoms: C3_3  and  C26_11 
REMARK    2  A    between atoms: C7_7  and  O11_16 
REMARK       I    between atoms: C26_11  and  N28_13 
REMARK    3  A    between atoms: O11_16  and  C12_17 
REMARK    4  A    between atoms: C15_21  and  O24_27 
REMARK    5  A    between atoms: C16_22  and  O22_29 
ROOT
ATOM      1  C1  M00 d   1      -1.351  -0.267  15.202  0.00  0.00     0.059 C 
ATOM      2  C2  M00 d   1      -0.885  -1.019  14.016  0.00  0.00     0.083 A 
ATOM      3  C3  M00 d   1      -0.021  -0.711  12.976  0.00  0.00     0.076 A 
ATOM      4  C4  M00 d   1       0.030  -1.888  12.156  0.00  0.00     0.029 A 
ATOM      5  C5  M00 d   1       0.731  -2.297  11.001  0.00  0.00     0.004 A 
ATOM      6  C6  M00 d   1       0.495  -3.578  10.479  0.00  0.00     0.025 A 
ATOM      7  C7  M00 d   1      -0.426  -4.434  11.083  0.00  0.00     0.104 A 
ATOM      8  C8  M00 d   1      -1.104  -4.075  12.251  0.00  0.00     0.049 A 
ATOM      9  C9  M00 d   1      -0.843  -2.798  12.742  0.00  0.00     0.102 A 
ATOM     10  O10 M00 d   1      -1.394  -2.271  13.866  0.00  0.00    -0.311 OA
ENDROOT
BRANCH   3  11
ATOM     11  C26 M00 d   1       0.664   0.566  12.843  0.00  0.00     0.256 C 
ATOM     12  O27 M00 d   1       0.063   1.623  12.677  0.00  0.00    -0.268 OA
ATOM     13  N28 M00 d   1       2.041   0.489  12.867  0.00  0.00    -0.340 N 
ATOM     14  C29 M00 d   1       2.846   1.653  12.603  0.00  0.00     0.124 C 
ATOM     15  H45 M00 d   1       2.457  -0.420  12.717  0.00  0.00     0.163 HD
ENDBRANCH   3  11
BRANCH   7  16
ATOM     16  O11 M00 d   1      -0.572  -5.693  10.545  0.00  0.00    -0.289 OA
BRANCH  16  17
ATOM     17  C12 M00 d   1      -0.319  -6.771  11.393  0.00  0.00     0.185 A 
ATOM     18  C13 M00 d   1       0.917  -7.410  11.254  0.00  0.00     0.061 A 
ATOM     19  C18 M00 d   1       1.110  -8.499  12.102  0.00  0.00     0.089 A 
ATOM     20  C14 M00 d   1       1.935  -7.031  10.353  0.00  0.00     0.031 A 
ATOM     21  N19 M00 d   1       0.180  -8.904  12.978  0.00  0.00    -0.224 NA
ATOM     22  C17 M00 d   1       2.313  -9.195  12.027  0.00  0.00     0.045 A 
ATOM     23  C20 M00 d   1      -0.971  -8.216  13.010  0.00  0.00     0.201 A 
ATOM     24  N21 M00 d   1      -1.281  -7.164  12.252  0.00  0.00    -0.200 NA
ATOM     25  C16 M00 d   1       3.336  -8.837  11.134  0.00  0.00     0.118 A 
ATOM     26  C15 M00 d   1       3.147  -7.724  10.305  0.00  0.00     0.117 A 
BRANCH  25  27
ATOM     27  O22 M00 d   1       4.509  -9.533  11.007  0.00  0.00    -0.326 OA
ATOM     28  C23 M00 d   1       5.566  -9.237  11.913  0.00  0.00     0.181 C 
ENDBRANCH  25  27
BRANCH  26  29
ATOM     29  O24 M00 d   1       4.022  -7.233   9.372  0.00  0.00    -0.326 OA
ATOM     30  C25 M00 d   1       4.834  -6.141   9.788  0.00  0.00     0.181 C 
ENDBRANCH  26  29
ENDBRANCH  16  17
ENDBRANCH   7  16
TORSDOF 5
ENDMDL
MODEL 6
REMARK VINA RESULT:      -5.9      1.862      8.766
REMARK  5 active torsions:
REMARK  status: ('A' for Active; 'I' for Inactive)
REMARK    1  A    between atoms: C3_3  and  C26_11 
REMARK    2  A    between atoms: C7_7  and  O11_16 
REMARK       I    between atoms: C26_11  and  N28_13 
REMARK    3  A    between atoms: O11_16  and  C12_17 
REMARK    4  A    between atoms: C15_21  and  O24_27 
REMARK    5  A    between atoms: C16_22  and  O22_29 
ROOT
ATOM      1  C1  M00 d   1       1.441 -10.483  13.396  0.00  0.00     0.059 C 
ATOM      2  C2  M00 d   1       0.508  -9.559  12.713  0.00  0.00     0.083 A 
ATOM      3  C3  M00 d   1      -0.718  -9.738  12.088  0.00  0.00     0.076 A 
ATOM      4  C4  M00 d   1      -1.121  -8.433  11.649  0.00  0.00     0.029 A 
ATOM      5  C5  M00 d   1      -2.250  -7.873  11.016  0.00  0.00     0.004 A 
ATOM      6  C6  M00 d   1      -2.267  -6.497  10.743  0.00  0.00     0.025 A 
ATOM      7  C7  M00 d   1      -1.180  -5.691  11.083  0.00  0.00     0.104 A 
ATOM      8  C8  M00 d   1      -0.065  -6.207  11.748  0.00  0.00     0.049 A 
ATOM      9  C9  M00 d   1      -0.084  -7.575  12.004  0.00  0.00     0.102 A 
ATOM     10  O10 M00 d   1       0.898  -8.258  12.647  0.00  0.00    -0.311 OA
ENDROOT
BRANCH   3  11
ATOM     11  C26 M00 d   1      -1.387 -11.025  11.972  0.00  0.00     0.256 C 
ATOM     12  O27 M00 d   1      -1.310 -11.721  10.964  0.00  0.00    -0.268 OA
ATOM     13  N28 M00 d   1      -2.156 -11.377  13.063  0.00  0.00    -0.340 N 
ATOM     14  C29 M00 d   1      -2.986 -12.553  13.026  0.00  0.00     0.124 C 
ATOM     15  H45 M00 d   1      -2.399 -10.643  13.714  0.00  0.00     0.163 HD
ENDBRANCH   3  11
BRANCH   7  16
ATOM     16  O11 M00 d   1      -1.284  -4.341  10.828  0.00  0.00    -0.289 OA
BRANCH  16  17
ATOM     17  C12 M00 d   1      -0.090  -3.632  10.709  0.00  0.00     0.185 A 
ATOM     18  C13 M00 d   1       0.119  -2.585  11.611  0.00  0.00     0.061 A 
ATOM     19  C18 M00 d   1       1.312  -1.888  11.432  0.00  0.00     0.089 A 
ATOM     20  C14 M00 d   1      -0.764  -2.215  12.650  0.00  0.00     0.031 A 
ATOM     21  N19 M00 d   1       2.187  -2.195  10.465  0.00  0.00    -0.224 NA
ATOM     22  C17 M00 d   1       1.597  -0.828  12.287  0.00  0.00     0.045 A 
ATOM     23  C20 M00 d   1       1.870  -3.215   9.653  0.00  0.00     0.201 A 
ATOM     24  N21 M00 d   1       0.763  -3.955   9.715  0.00  0.00    -0.200 NA
ATOM     25  C16 M00 d   1       0.731  -0.440  13.323  0.00  0.00     0.118 A 
ATOM     26  C15 M00 d   1      -0.453  -1.163  13.515  0.00  0.00     0.117 A 
BRANCH  25  27
ATOM     27  O22 M00 d   1       0.965   0.629  14.147  0.00  0.00    -0.326 OA
ATOM     28  C23 M00 d   1       0.912   1.934  13.583  0.00  0.00     0.181 C 
ENDBRANCH  25  27
BRANCH  26  29
ATOM     29  O24 M00 d   1      -1.417  -0.929  14.460  0.00  0.00    -0.326 OA
ATOM     30  C25 M00 d   1      -1.353  -1.732  15.633  0.00  0.00     0.181 C 
ENDBRANCH  26  29
ENDBRANCH  16  17
ENDBRANCH   7  16
TORSDOF 5
ENDMDL
MODEL 7
REMARK VINA RESULT:      -5.7      3.379      4.729
REMARK  5 active torsions:
REMARK  status: ('A' for Active; 'I' for Inactive)
REMARK    1  A    between atoms: C3_3  and  C26_11 
REMARK    2  A    between atoms: C7_7  and  O11_16 
REMARK       I    between atoms: C26_11  and  N28_13 
REMARK    3  A    between atoms: O11_16  and  C12_17 
REMARK    4  A    between atoms: C15_21  and  O24_27 
REMARK    5  A    between atoms: C16_22  and  O22_29 
ROOT
ATOM      1  C1  M00 d   1       5.251  -0.439  10.669  0.00  0.00     0.059 C 
ATOM      2  C2  M00 d   1       4.260  -1.535  10.579  0.00  0.00     0.083 A 
ATOM      3  C3  M00 d   1       4.357  -2.877  10.244  0.00  0.00     0.076 A 
ATOM      4  C4  M00 d   1       3.030  -3.404  10.377  0.00  0.00     0.029 A 
ATOM      5  C5  M00 d   1       2.418  -4.670  10.258  0.00  0.00     0.004 A 
ATOM      6  C6  M00 d   1       1.036  -4.783  10.473  0.00  0.00     0.025 A 
ATOM      7  C7  M00 d   1       0.272  -3.661  10.792  0.00  0.00     0.104 A 
ATOM      8  C8  M00 d   1       0.854  -2.401  10.959  0.00  0.00     0.049 A 
ATOM      9  C9  M00 d   1       2.227  -2.328  10.739  0.00  0.00     0.102 A 
ATOM     10  O10 M00 d   1       2.973  -1.199  10.861  0.00  0.00    -0.311 OA
ENDROOT
BRANCH   3  11
ATOM     11  C26 M00 d   1       5.603  -3.530   9.867  0.00  0.00     0.256 C 
ATOM     12  O27 M00 d   1       5.852  -3.860   8.712  0.00  0.00    -0.268 OA
ATOM     13  N28 M00 d   1       6.457  -3.793  10.918  0.00  0.00    -0.340 N 
ATOM     14  C29 M00 d   1       7.657  -4.562  10.712  0.00  0.00     0.124 C 
ATOM     15  H45 M00 d   1       6.069  -3.759  11.851  0.00  0.00     0.163 HD
ENDBRANCH   3  11
BRANCH   7  16
ATOM     16  O11 M00 d   1      -1.070  -3.853  11.037  0.00  0.00    -0.289 OA
BRANCH  16  17
ATOM     17  C12 M00 d   1      -1.420  -4.273  12.320  0.00  0.00     0.185 A 
ATOM     18  C13 M00 d   1      -1.938  -5.565  12.445  0.00  0.00     0.061 A 
ATOM     19  C18 M00 d   1      -2.300  -5.926  13.741  0.00  0.00     0.089 A 
ATOM     20  C14 M00 d   1      -2.101  -6.485  11.386  0.00  0.00     0.031 A 
ATOM     21  N19 M00 d   1      -2.166  -5.096  14.784  0.00  0.00    -0.224 NA
ATOM     22  C17 M00 d   1      -2.827  -7.196  13.954  0.00  0.00     0.045 A 
ATOM     23  C20 M00 d   1      -1.667  -3.876  14.536  0.00  0.00     0.201 A 
ATOM     24  N21 M00 d   1      -1.288  -3.408  13.346  0.00  0.00    -0.200 NA
ATOM     25  C16 M00 d   1      -3.003  -8.124  12.914  0.00  0.00     0.118 A 
ATOM     26  C15 M00 d   1      -2.610  -7.764  11.618  0.00  0.00     0.117 A 
BRANCH  25  27
ATOM     27  O22 M00 d   1      -3.564  -9.361  13.088  0.00  0.00    -0.326 OA
ATOM     28  C23 M00 d   1      -2.698 -10.458  13.359  0.00  0.00     0.181 C 
ENDBRANCH  25  27
BRANCH  26  29
ATOM     29  O24 M00 d   1      -2.712  -8.527  10.485  0.00  0.00    -0.326 OA
ATOM     30  C25 M00 d   1      -3.889  -8.339   9.707  0.00  0.00     0.181 C 
ENDBRANCH  26  29
ENDBRANCH  16  17
ENDBRANCH   7  16
TORSDOF 5
ENDMDL
MODEL 8
REMARK VINA RESULT:      -5.7      3.250      4.801
REMARK  5 active torsions:
REMARK  status: ('A' for Active; 'I' for Inactive)
REMARK    1  A    between atoms: C3_3  and  C26_11 
REMARK    2  A    between atoms: C7_7  and  O11_16 
REMARK       I    between atoms: C26_11  and  N28_13 
REMARK    3  A    between atoms: O11_16  and  C12_17 
REMARK    4  A    between atoms: C15_21  and  O24_27 
REMARK    5  A    between atoms: C16_22  and  O22_29 
ROOT
ATOM      1  C1  M00 d   1       3.837  -1.359  10.633  0.00  0.00     0.059 C 
ATOM      2  C2  M00 d   1       3.175  -2.682  10.688  0.00  0.00     0.083 A 
ATOM      3  C3  M00 d   1       3.474  -3.917  10.133  0.00  0.00     0.076 A 
ATOM      4  C4  M00 d   1       2.445  -4.805  10.593  0.00  0.00     0.029 A 
ATOM      5  C5  M00 d   1       2.158  -6.182  10.475  0.00  0.00     0.004 A 
ATOM      6  C6  M00 d   1       1.007  -6.694  11.093  0.00  0.00     0.025 A 
ATOM      7  C7  M00 d   1       0.151  -5.856  11.809  0.00  0.00     0.104 A 
ATOM      8  C8  M00 d   1       0.429  -4.497  11.979  0.00  0.00     0.049 A 
ATOM      9  C9  M00 d   1       1.580  -4.025  11.354  0.00  0.00     0.102 A 
ATOM     10  O10 M00 d   1       2.024  -2.743  11.410  0.00  0.00    -0.311 OA
ENDROOT
BRANCH   3  11
ATOM     11  C26 M00 d   1       4.631  -4.165   9.286  0.00  0.00     0.256 C 
ATOM     12  O27 M00 d   1       4.530  -4.467   8.101  0.00  0.00    -0.268 OA
ATOM     13  N28 M00 d   1       5.848  -4.085   9.933  0.00  0.00    -0.340 N 
ATOM     14  C29 M00 d   1       7.064  -4.448   9.254  0.00  0.00     0.124 C 
ATOM     15  H45 M00 d   1       5.838  -4.120  10.943  0.00  0.00     0.163 HD
ENDBRANCH   3  11
BRANCH   7  16
ATOM     16  O11 M00 d   1      -0.933  -6.435  12.430  0.00  0.00    -0.289 OA
BRANCH  16  17
ATOM     17  C12 M00 d   1      -1.717  -7.289  11.655  0.00  0.00     0.185 A 
ATOM     18  C13 M00 d   1      -1.612  -8.658  11.917  0.00  0.00     0.061 A 
ATOM     19  C18 M00 d   1      -2.392  -9.472  11.097  0.00  0.00     0.089 A 
ATOM     20  C14 M00 d   1      -0.805  -9.237  12.921  0.00  0.00     0.031 A 
ATOM     21  N19 M00 d   1      -3.177  -8.978  10.130  0.00  0.00    -0.224 NA
ATOM     22  C17 M00 d   1      -2.344 -10.849  11.289  0.00  0.00     0.045 A 
ATOM     23  C20 M00 d   1      -3.185  -7.646   9.968  0.00  0.00     0.201 A 
ATOM     24  N21 M00 d   1      -2.484  -6.762  10.679  0.00  0.00    -0.200 NA
ATOM     25  C16 M00 d   1      -1.545 -11.445  12.278  0.00  0.00     0.118 A 
ATOM     26  C15 M00 d   1      -0.785 -10.620  13.117  0.00  0.00     0.117 A 
BRANCH  25  27
ATOM     27  O22 M00 d   1      -1.443 -12.800  12.455  0.00  0.00    -0.326 OA
ATOM     28  C23 M00 d   1      -1.508 -13.308  13.783  0.00  0.00     0.181 C 
ENDBRANCH  25  27
BRANCH  26  29
ATOM     29  O24 M00 d   1       0.054 -11.018  14.124  0.00  0.00    -0.326 OA
ATOM     30  C25 M00 d   1       1.444 -10.805  13.902  0.00  0.00     0.181 C 
ENDBRANCH  26  29
ENDBRANCH  16  17
ENDBRANCH   7  16
TORSDOF 5
ENDMDL
MODEL 9
REMARK VINA RESULT:      -5.6      7.643      9.995
REMARK  5 active torsions:
REMARK  status: ('A' for Active; 'I' for Inactive)
REMARK    1  A    between atoms: C3_3  and  C26_11 
REMARK    2  A    between atoms: C7_7  and  O11_16 
REMARK       I    between atoms: C26_11  and  N28_13 
REMARK    3  A    between atoms: O11_16  and  C12_17 
REMARK    4  A    between atoms: C15_21  and  O24_27 
REMARK    5  A    between atoms: C16_22  and  O22_29 
ROOT
ATOM      1  C1  M00 d   1       9.867  -4.307   3.641  0.00  0.00     0.059 C 
ATOM      2  C2  M00 d   1       9.390  -3.862   4.970  0.00  0.00     0.083 A 
ATOM      3  C3  M00 d   1       9.377  -2.633   5.611  0.00  0.00     0.076 A 
ATOM      4  C4  M00 d   1       8.749  -2.867   6.880  0.00  0.00     0.029 A 
ATOM      5  C5  M00 d   1       8.360  -2.082   7.986  0.00  0.00     0.004 A 
ATOM      6  C6  M00 d   1       7.749  -2.706   9.085  0.00  0.00     0.025 A 
ATOM      7  C7  M00 d   1       7.536  -4.085   9.091  0.00  0.00     0.104 A 
ATOM      8  C8  M00 d   1       7.872  -4.884   7.995  0.00  0.00     0.049 A 
ATOM      9  C9  M00 d   1       8.473  -4.230   6.922  0.00  0.00     0.102 A 
ATOM     10  O10 M00 d   1       8.861  -4.829   5.767  0.00  0.00    -0.311 OA
ENDROOT
BRANCH   3  11
ATOM     11  C26 M00 d   1       9.899  -1.408   5.024  0.00  0.00     0.256 C 
ATOM     12  O27 M00 d   1       9.186  -0.605   4.429  0.00  0.00    -0.268 OA
ATOM     13  N28 M00 d   1      11.263  -1.244   5.146  0.00  0.00    -0.340 N 
ATOM     14  C29 M00 d   1      11.933  -0.152   4.488  0.00  0.00     0.124 C 
ATOM     15  H45 M00 d   1      11.808  -2.062   5.383  0.00  0.00     0.163 HD
ENDBRANCH   3  11
BRANCH   7  16
ATOM     16  O11 M00 d   1       6.889  -4.624  10.181  0.00  0.00    -0.289 OA
BRANCH  16  17
ATOM     17  C12 M00 d   1       5.678  -5.269   9.935  0.00  0.00     0.185 A 
ATOM     18  C13 M00 d   1       4.517  -4.496  10.024  0.00  0.00     0.061 A 
ATOM     19  C18 M00 d   1       3.331  -5.193   9.799  0.00  0.00     0.089 A 
ATOM     20  C14 M00 d   1       4.478  -3.113  10.307  0.00  0.00     0.031 A 
ATOM     21  N19 M00 d   1       3.308  -6.505   9.526  0.00  0.00    -0.224 NA
ATOM     22  C17 M00 d   1       2.128  -4.498   9.872  0.00  0.00     0.045 A 
ATOM     23  C20 M00 d   1       4.488  -7.141   9.478  0.00  0.00     0.201 A 
ATOM     24  N21 M00 d   1       5.687  -6.593   9.678  0.00  0.00    -0.200 NA
ATOM     25  C16 M00 d   1       2.067  -3.124  10.157  0.00  0.00     0.118 A 
ATOM     26  C15 M00 d   1       3.264  -2.424  10.353  0.00  0.00     0.117 A 
BRANCH  25  27
ATOM     27  O22 M00 d   1       0.894  -2.427  10.281  0.00  0.00    -0.326 OA
ATOM     28  C23 M00 d   1       0.171  -2.545  11.501  0.00  0.00     0.181 C 
ENDBRANCH  25  27
BRANCH  26  29
ATOM     29  O24 M00 d   1       3.401  -1.093  10.648  0.00  0.00    -0.326 OA
ATOM     30  C25 M00 d   1       4.731  -0.587  10.657  0.00  0.00     0.181 C 
ENDBRANCH  26  29
ENDBRANCH  16  17
ENDBRANCH   7  16
TORSDOF 5
ENDMDL
