REMARK  5 active torsions:
REMARK  status: ('A' for Active; 'I' for Inactive)
REMARK    1  A    between atoms: C3_3  and  C26_11 
REMARK    2  A    between atoms: C7_7  and  O11_16 
REMARK       I    between atoms: C26_11  and  N28_13 
REMARK    3  A    between atoms: O11_16  and  C12_17 
REMARK    4  A    between atoms: C15_21  and  O24_27 
REMARK    5  A    between atoms: C16_22  and  O22_29 
ROOT
ATOM      1  C1  M00 d   1       0.815  -4.037  10.101  0.00  0.00     0.059 C 
ATOM      2  C2  M00 d   1       2.233  -4.393   9.871  0.00  0.00     0.083 A 
ATOM      3  C3  M00 d   1       2.933  -5.589   9.929  0.00  0.00     0.076 A 
ATOM      4  C4  M00 d   1       4.283  -5.263   9.568  0.00  0.00     0.029 A 
ATOM      5  C5  M00 d   1       5.485  -5.974   9.366  0.00  0.00     0.004 A 
ATOM      6  C6  M00 d   1       6.643  -5.268   9.006  0.00  0.00     0.025 A 
ATOM      7  C7  M00 d   1       6.613  -3.881   8.857  0.00  0.00     0.104 A 
ATOM      8  C8  M00 d   1       5.430  -3.153   9.009  0.00  0.00     0.049 A 
ATOM      9  C9  M00 d   1       4.301  -3.887   9.364  0.00  0.00     0.102 A 
ATOM     10  O10 M00 d   1       3.061  -3.364   9.547  0.00  0.00    -0.311 OA
ENDROOT
BRANCH   3  11
ATOM     11  C26 M00 d   1       2.327  -6.866  10.275  0.00  0.00     0.256 C 
ATOM     12  O27 M00 d   1       2.714  -7.930   9.802  0.00  0.00    -0.268 OA
ATOM     13  N28 M00 d   1       1.252  -6.781  11.136  0.00  0.00    -0.340 N 
ATOM     14  C29 M00 d   1       0.469  -7.948  11.449  0.00  0.00     0.124 C 
ATOM     15  H45 M00 d   1       0.820  -5.874  11.249  0.00  0.00     0.163 HD
ENDBRANCH   3  11
BRANCH   7  16
ATOM     16  O11 M00 d   1       7.774  -3.259   8.456  0.00  0.00    -0.289 OA
BRANCH  16  17
ATOM     17  C12 M00 d   1       8.335  -3.692   7.255  0.00  0.00     0.185 A 
ATOM     18  C13 M00 d   1       8.751  -2.705   6.357  0.00  0.00     0.061 A 
ATOM     19  C18 M00 d   1       9.277  -3.188   5.160  0.00  0.00     0.089 A 
ATOM     20  C14 M00 d   1       8.680  -1.313   6.584  0.00  0.00     0.031 A 
ATOM     21  N19 M00 d   1       9.370  -4.497   4.891  0.00  0.00    -0.224 NA
ATOM     22  C17 M00 d   1       9.713  -2.271   4.208  0.00  0.00     0.045 A 
ATOM     23  C20 M00 d   1       8.927  -5.348   5.828  0.00  0.00     0.201 A 
ATOM     24  N21 M00 d   1       8.400  -5.016   7.007  0.00  0.00    -0.200 NA
ATOM     25  C16 M00 d   1       9.646  -0.883   4.412  0.00  0.00     0.118 A 
ATOM     26  C15 M00 d   1       9.143  -0.405   5.629  0.00  0.00     0.117 A 
BRANCH  25  27
ATOM     27  O22 M00 d   1      10.023   0.040   3.473  0.00  0.00    -0.326 OA
ATOM     28  C23 M00 d   1      11.369   0.016   3.012  0.00  0.00     0.181 C 
ENDBRANCH  25  27
BRANCH  26  29
ATOM     29  O24 M00 d   1       8.994   0.905   6.001  0.00  0.00    -0.326 OA
ATOM     30  C25 M00 d   1       7.728   1.494   5.725  0.00  0.00     0.181 C 
ENDBRANCH  26  29
ENDBRANCH  16  17
ENDBRANCH   7  16
TORSDOF 5
