#
#	File Created by: Spartan '14 Export
#

@<TRIPOS>MOLECULE
M0001
48 51
SMALL
NO_CHARGES


@<TRIPOS>ATOM
    1   C1        -2.767723331    -5.399272471    -1.680640768     C.3   1  M0001
    2   C2        -2.700028893    -3.941190501    -1.437059479    C.ar   1  M0001
    3   C3        -3.557464632    -2.889225632    -1.725406361    C.ar   1  M0001
    4   C4        -2.919025434    -1.716979137    -1.197450070    C.ar   1  M0001
    5   C5        -3.237446639    -0.346863259    -1.079555576    C.ar   1  M0001
    6   C6        -2.312620508     0.519234509    -0.478310469    C.ar   1  M0001
    7   C7        -1.089698871     0.039482560    -0.007291275    C.ar   1  M0001
    8   C8        -0.762573188    -1.318175562    -0.069641952    C.ar   1  M0001
    9   C9        -1.704747982    -2.148208494    -0.672455779    C.ar   1  M0001
   10   O10       -1.575134353    -3.492255219    -0.817388386       O   1  M0001
   11   O11       -0.252240387     0.936381190     0.615604092       O   1  M0001
   12   C12        0.992076211     1.150089478     0.022791836    C.ar   1  M0001
   13   C13        1.990098553     1.706575915     0.827095478    C.ar   1  M0001
   14   C14        1.848614762     2.037069840     2.192378995    C.ar   1  M0001
   15   C15        2.917088780     2.571971928     2.915612567    C.ar   1  M0001
   16   C16        4.132131376     2.825419933     2.264762089    C.ar   1  M0001
   17   C17        4.252578590     2.485607293     0.907991512    C.ar   1  M0001
   18   C18        3.205388083     1.929264265     0.180044200    C.ar   1  M0001
   19   N19        3.396130669     1.634704078    -1.112797470    N.ar   1  M0001
   20   C20        2.357731472     1.113849283    -1.782642820    C.ar   1  M0001
   21   N21        1.147864244     0.857669151    -1.283580606    N.ar   1  M0001
   22   O22        5.131210894     3.416662101     2.990785293       O   1  M0001
   23   C23        6.339066205     3.752207831     2.319434923     C.3   1  M0001
   24   O24        2.611766110     2.842719035     4.223506791       O   1  M0001
   25   C25        3.659554468     2.642031813     5.166213555     C.3   1  M0001
   26   C26       -4.832447169    -3.046743921    -2.407729990     C.2   1  M0001
   27   O27       -5.460824066    -4.100339411    -2.396335249     O.2   1  M0001
   28   N28       -5.250976944    -1.936962634    -3.111700816    N.am   1  M0001
   29   C29       -6.420266841    -1.998556920    -3.949952498     C.3   1  M0001
   30   H30       -3.547022603    -5.853264675    -1.061041878       H   1  M0001
   31   H31       -2.994363359    -5.604397282    -2.731422381       H   1  M0001
   32   H32       -1.817277773    -5.886550452    -1.441003488       H   1  M0001
   33   H33       -4.189553995     0.044903843    -1.424602911       H   1  M0001
   34   H34       -2.551074523     1.575542736    -0.378870835       H   1  M0001
   35   H35        0.164282659    -1.713240215     0.324809821       H   1  M0001
   36   H36        0.902104468     1.866555759     2.702234123       H   1  M0001
   37   H37        5.179099714     2.654841191     0.367387086       H   1  M0001
   38   H38        2.517765937     0.880505780    -2.829840331       H   1  M0001
   39   H39        6.998540747     4.239712602     3.043944901       H   1  M0001
   40   H40        6.850251160     2.854276942     1.957379971       H   1  M0001
   41   H41        6.156450015     4.462280777     1.506197510       H   1  M0001
   42   H42        3.195254916     2.438237030     6.136322742       H   1  M0001
   43   H43        4.288304925     1.780199761     4.916364625       H   1  M0001
   44   H44        4.255040869     3.552982547     5.275843391       H   1  M0001
   45   H45       -4.560399565    -1.226259460    -3.311030287       H   1  M0001
   46   H46       -6.712418207    -0.979787763    -4.214514399       H   1  M0001
   47   H47       -6.175644296    -2.561451646    -4.854694182       H   1  M0001
   48   H48       -7.238111330    -2.496070800    -3.421628350       H   1  M0001


@<TRIPOS>BOND
    1      1      2    1
    2      2      3    ar
    3      3      4    ar
    4      4      5    ar
    5      5      6    ar
    6      6      7    ar
    7      7      8    ar
    8      8      9    ar
    9      4      9    ar
   10      9     10    ar
   11      2     10    ar
   12      7     11    1
   13     11     12    1
   14     12     13    ar
   15     13     14    ar
   16     14     15    ar
   17     15     16    ar
   18     16     17    ar
   19     17     18    ar
   20     13     18    ar
   21     18     19    ar
   22     19     20    ar
   23     20     21    ar
   24     12     21    ar
   25     16     22    1
   26     22     23    1
   27     15     24    1
   28     24     25    1
   29      3     26    1
   30     26     27    2
   31     26     28    am
   32     28     29    1
   33      1     30    1
   34      1     31    1
   35      1     32    1
   36      5     33    1
   37      6     34    1
   38      8     35    1
   39     14     36    1
   40     17     37    1
   41     20     38    1
   42     23     39    1
   43     23     40    1
   44     23     41    1
   45     25     42    1
   46     25     43    1
   47     25     44    1
   48     28     45    1
   49     29     46    1
   50     29     47    1
   51     29     48    1
