REMARK  5 active torsions:
REMARK  status: ('A' for Active; 'I' for Inactive)
REMARK    1  A    between atoms: C3_3  and  C26_26 
REMARK    2  A    between atoms: C7_7  and  O11_11 
REMARK    3  A    between atoms: O11_11  and  C12_12 
REMARK    4  A    between atoms: C15_15  and  O24_24 
REMARK    5  A    between atoms: C16_16  and  O22_22 
REMARK       I    between atoms: C26_26  and  N28_28 
ROOT
ATOM      1  C1  M00 d   1      -2.768  -5.399  -1.681  0.00  0.00     0.000 C 
ATOM      2  C2  M00 d   1      -2.700  -3.941  -1.437  0.00  0.00     0.000 A 
ATOM      3  C3  M00 d   1      -3.557  -2.889  -1.725  0.00  0.00     0.000 A 
ATOM      4  C4  M00 d   1      -2.919  -1.717  -1.197  0.00  0.00     0.000 A 
ATOM      5  C5  M00 d   1      -3.237  -0.347  -1.080  0.00  0.00     0.000 A 
ATOM      6  C6  M00 d   1      -2.313   0.519  -0.478  0.00  0.00     0.000 A 
ATOM      7  C7  M00 d   1      -1.090   0.039  -0.007  0.00  0.00     0.000 A 
ATOM      8  C8  M00 d   1      -0.763  -1.318  -0.070  0.00  0.00     0.000 A 
ATOM      9  C9  M00 d   1      -1.705  -2.148  -0.672  0.00  0.00     0.000 A 
ATOM     10  O10 M00 d   1      -1.575  -3.492  -0.817  0.00  0.00     0.000 OA
ENDROOT
BRANCH   3  11
ATOM     11  C26 M00 d   1      -4.832  -3.047  -2.408  0.00  0.00     0.000 C 
ATOM     12  O27 M00 d   1      -5.461  -4.100  -2.396  0.00  0.00     0.000 OA
ATOM     13  N28 M00 d   1      -5.251  -1.937  -3.112  0.00  0.00     0.000 N 
ATOM     14  C29 M00 d   1      -6.420  -1.999  -3.950  0.00  0.00     0.000 C 
ATOM     15  H45 M00 d   1      -4.560  -1.226  -3.311  0.00  0.00     0.000 HD
ENDBRANCH   3  11
BRANCH   7  16
ATOM     16  O11 M00 d   1      -0.252   0.936   0.616  0.00  0.00     0.000 OA
BRANCH  16  17
ATOM     17  C12 M00 d   1       0.992   1.150   0.023  0.00  0.00     0.000 A 
ATOM     18  C13 M00 d   1       1.990   1.707   0.827  0.00  0.00     0.000 A 
ATOM     19  C14 M00 d   1       1.849   2.037   2.192  0.00  0.00     0.000 A 
ATOM     20  C18 M00 d   1       3.205   1.929   0.180  0.00  0.00     0.000 A 
ATOM     21  C15 M00 d   1       2.917   2.572   2.916  0.00  0.00     0.000 A 
ATOM     22  C16 M00 d   1       4.132   2.825   2.265  0.00  0.00     0.000 A 
ATOM     23  C17 M00 d   1       4.253   2.486   0.908  0.00  0.00     0.000 A 
ATOM     24  N19 M00 d   1       3.396   1.635  -1.113  0.00  0.00     0.000 NA
ATOM     25  C20 M00 d   1       2.358   1.114  -1.783  0.00  0.00     0.000 A 
ATOM     26  N21 M00 d   1       1.148   0.858  -1.284  0.00  0.00     0.000 NA
BRANCH  21  27
ATOM     27  O24 M00 d   1       2.612   2.843   4.224  0.00  0.00     0.000 OA
ATOM     28  C25 M00 d   1       3.660   2.642   5.166  0.00  0.00     0.000 C 
ENDBRANCH  21  27
BRANCH  22  29
ATOM     29  O22 M00 d   1       5.131   3.417   2.991  0.00  0.00     0.000 OA
ATOM     30  C23 M00 d   1       6.339   3.752   2.319  0.00  0.00     0.000 C 
ENDBRANCH  22  29
ENDBRANCH  16  17
ENDBRANCH   7  16
TORSDOF 5
