REMARK VINA RESULT:      -6.9      0.000      0.000
REMARK  5 active torsions:
REMARK  status: ('A' for Active; 'I' for Inactive)
REMARK    1  A    between atoms: C3_3  and  C26_11 
REMARK    2  A    between atoms: C7_7  and  O11_16 
REMARK       I    between atoms: C26_11  and  N28_13 
REMARK    3  A    between atoms: O11_16  and  C12_17 
REMARK    4  A    between atoms: C15_21  and  O24_27 
REMARK    5  A    between atoms: C16_22  and  O22_29 
ROOT
ATOM      1  C1  M00 d   1      -1.596  -0.333  15.285  0.00  0.00     0.059 C 
ATOM      2  C2  M00 d   1      -1.068  -1.036  14.095  0.00  0.00     0.083 A 
ATOM      3  C3  M00 d   1      -0.224  -0.653  13.063  0.00  0.00     0.076 A 
ATOM      4  C4  M00 d   1      -0.079  -1.815  12.233  0.00  0.00     0.029 A 
ATOM      5  C5  M00 d   1       0.657  -2.160  11.080  0.00  0.00     0.004 A 
ATOM      6  C6  M00 d   1       0.523  -3.450  10.544  0.00  0.00     0.025 A 
ATOM      7  C7  M00 d   1      -0.332  -4.380  11.136  0.00  0.00     0.104 A 
ATOM      8  C8  M00 d   1      -1.043  -4.084  12.303  0.00  0.00     0.049 A 
ATOM      9  C9  M00 d   1      -0.883  -2.795  12.806  0.00  0.00     0.102 A 
ATOM     10  O10 M00 d   1      -1.479  -2.322  13.931  0.00  0.00    -0.311 OA
ENDROOT
BRANCH   3  11
ATOM     11  C26 M00 d   1       0.361   0.674  12.945  0.00  0.00     0.256 C 
ATOM     12  O27 M00 d   1      -0.310   1.672  12.702  0.00  0.00    -0.268 OA
ATOM     13  N28 M00 d   1       1.734   0.714  13.077  0.00  0.00    -0.340 N 
ATOM     14  C29 M00 d   1       2.459   1.935  12.841  0.00  0.00     0.124 C 
ATOM     15  H45 M00 d   1       2.234  -0.161  12.986  0.00  0.00     0.163 HD
ENDBRANCH   3  11
BRANCH   7  16
ATOM     16  O11 M00 d   1      -0.379  -5.641  10.587  0.00  0.00    -0.289 OA
BRANCH  16  17
ATOM     17  C12 M00 d   1       0.255  -6.659  11.298  0.00  0.00     0.185 A 
ATOM     18  C13 M00 d   1      -0.410  -7.886  11.378  0.00  0.00     0.061 A 
ATOM     19  C18 M00 d   1       0.249  -8.861  12.124  0.00  0.00     0.089 A 
ATOM     20  C14 M00 d   1      -1.649  -8.184  10.769  0.00  0.00     0.031 A 
ATOM     21  N19 M00 d   1       1.427  -8.636  12.723  0.00  0.00    -0.224 NA
ATOM     22  C17 M00 d   1      -0.346 -10.112  12.257  0.00  0.00     0.045 A 
ATOM     23  C20 M00 d   1       1.961  -7.414  12.582  0.00  0.00     0.201 A 
ATOM     24  N21 M00 d   1       1.432  -6.396  11.902  0.00  0.00    -0.200 NA
ATOM     25  C16 M00 d   1      -1.580 -10.426  11.664  0.00  0.00     0.118 A 
ATOM     26  C15 M00 d   1      -2.224  -9.451  10.892  0.00  0.00     0.117 A 
BRANCH  25  27
ATOM     27  O22 M00 d   1      -2.210 -11.633  11.819  0.00  0.00    -0.326 OA
ATOM     28  C23 M00 d   1      -2.644 -12.000  13.124  0.00  0.00     0.181 C 
ENDBRANCH  25  27
BRANCH  26  29
ATOM     29  O24 M00 d   1      -3.428  -9.571  10.249  0.00  0.00    -0.326 OA
ATOM     30  C25 M00 d   1      -3.928  -8.391   9.631  0.00  0.00     0.181 C 
ENDBRANCH  26  29
ENDBRANCH  16  17
ENDBRANCH   7  16
TORSDOF 5
