REMARK VINA RESULT:      -5.7      3.379      4.729
REMARK  5 active torsions:
REMARK  status: ('A' for Active; 'I' for Inactive)
REMARK    1  A    between atoms: C3_3  and  C26_11 
REMARK    2  A    between atoms: C7_7  and  O11_16 
REMARK       I    between atoms: C26_11  and  N28_13 
REMARK    3  A    between atoms: O11_16  and  C12_17 
REMARK    4  A    between atoms: C15_21  and  O24_27 
REMARK    5  A    between atoms: C16_22  and  O22_29 
ROOT
ATOM      1  C1  M00 d   1       5.251  -0.439  10.669  0.00  0.00     0.059 C 
ATOM      2  C2  M00 d   1       4.260  -1.535  10.579  0.00  0.00     0.083 A 
ATOM      3  C3  M00 d   1       4.357  -2.877  10.244  0.00  0.00     0.076 A 
ATOM      4  C4  M00 d   1       3.030  -3.404  10.377  0.00  0.00     0.029 A 
ATOM      5  C5  M00 d   1       2.418  -4.670  10.258  0.00  0.00     0.004 A 
ATOM      6  C6  M00 d   1       1.036  -4.783  10.473  0.00  0.00     0.025 A 
ATOM      7  C7  M00 d   1       0.272  -3.661  10.792  0.00  0.00     0.104 A 
ATOM      8  C8  M00 d   1       0.854  -2.401  10.959  0.00  0.00     0.049 A 
ATOM      9  C9  M00 d   1       2.227  -2.328  10.739  0.00  0.00     0.102 A 
ATOM     10  O10 M00 d   1       2.973  -1.199  10.861  0.00  0.00    -0.311 OA
ENDROOT
BRANCH   3  11
ATOM     11  C26 M00 d   1       5.603  -3.530   9.867  0.00  0.00     0.256 C 
ATOM     12  O27 M00 d   1       5.852  -3.860   8.712  0.00  0.00    -0.268 OA
ATOM     13  N28 M00 d   1       6.457  -3.793  10.918  0.00  0.00    -0.340 N 
ATOM     14  C29 M00 d   1       7.657  -4.562  10.712  0.00  0.00     0.124 C 
ATOM     15  H45 M00 d   1       6.069  -3.759  11.851  0.00  0.00     0.163 HD
ENDBRANCH   3  11
BRANCH   7  16
ATOM     16  O11 M00 d   1      -1.070  -3.853  11.037  0.00  0.00    -0.289 OA
BRANCH  16  17
ATOM     17  C12 M00 d   1      -1.420  -4.273  12.320  0.00  0.00     0.185 A 
ATOM     18  C13 M00 d   1      -1.938  -5.565  12.445  0.00  0.00     0.061 A 
ATOM     19  C18 M00 d   1      -2.300  -5.926  13.741  0.00  0.00     0.089 A 
ATOM     20  C14 M00 d   1      -2.101  -6.485  11.386  0.00  0.00     0.031 A 
ATOM     21  N19 M00 d   1      -2.166  -5.096  14.784  0.00  0.00    -0.224 NA
ATOM     22  C17 M00 d   1      -2.827  -7.196  13.954  0.00  0.00     0.045 A 
ATOM     23  C20 M00 d   1      -1.667  -3.876  14.536  0.00  0.00     0.201 A 
ATOM     24  N21 M00 d   1      -1.288  -3.408  13.346  0.00  0.00    -0.200 NA
ATOM     25  C16 M00 d   1      -3.003  -8.124  12.914  0.00  0.00     0.118 A 
ATOM     26  C15 M00 d   1      -2.610  -7.764  11.618  0.00  0.00     0.117 A 
BRANCH  25  27
ATOM     27  O22 M00 d   1      -3.564  -9.361  13.088  0.00  0.00    -0.326 OA
ATOM     28  C23 M00 d   1      -2.698 -10.458  13.359  0.00  0.00     0.181 C 
ENDBRANCH  25  27
BRANCH  26  29
ATOM     29  O24 M00 d   1      -2.712  -8.527  10.485  0.00  0.00    -0.326 OA
ATOM     30  C25 M00 d   1      -3.889  -8.339   9.707  0.00  0.00     0.181 C 
ENDBRANCH  26  29
ENDBRANCH  16  17
ENDBRANCH   7  16
TORSDOF 5
