REMARK VINA RESULT:      -6.4      2.736      8.821
REMARK  5 active torsions:
REMARK  status: ('A' for Active; 'I' for Inactive)
REMARK    1  A    between atoms: C3_3  and  C26_11 
REMARK    2  A    between atoms: C7_7  and  O11_16 
REMARK       I    between atoms: C26_11  and  N28_13 
REMARK    3  A    between atoms: O11_16  and  C12_17 
REMARK    4  A    between atoms: C15_21  and  O24_27 
REMARK    5  A    between atoms: C16_22  and  O22_29 
ROOT
ATOM      1  C1  M00 d   1       1.311 -11.572  13.679  0.00  0.00     0.059 C 
ATOM      2  C2  M00 d   1       0.325 -10.742  12.952  0.00  0.00     0.083 A 
ATOM      3  C3  M00 d   1      -0.974 -10.969  12.521  0.00  0.00     0.076 A 
ATOM      4  C4  M00 d   1      -1.393  -9.746  11.899  0.00  0.00     0.029 A 
ATOM      5  C5  M00 d   1      -2.577  -9.254  11.311  0.00  0.00     0.004 A 
ATOM      6  C6  M00 d   1      -2.591  -7.950  10.792  0.00  0.00     0.025 A 
ATOM      7  C7  M00 d   1      -1.448  -7.151  10.846  0.00  0.00     0.104 A 
ATOM      8  C8  M00 d   1      -0.273  -7.593  11.458  0.00  0.00     0.049 A 
ATOM      9  C9  M00 d   1      -0.297  -8.891  11.964  0.00  0.00     0.102 A 
ATOM     10  O10 M00 d   1       0.739  -9.495  12.602  0.00  0.00    -0.311 OA
ENDROOT
BRANCH   3  11
ATOM     11  C26 M00 d   1      -1.687 -12.221  12.725  0.00  0.00     0.256 C 
ATOM     12  O27 M00 d   1      -1.388 -13.255  12.136  0.00  0.00    -0.268 OA
ATOM     13  N28 M00 d   1      -2.757 -12.141  13.592  0.00  0.00    -0.340 N 
ATOM     14  C29 M00 d   1      -3.638 -13.266  13.776  0.00  0.00     0.124 C 
ATOM     15  H45 M00 d   1      -3.112 -11.219  13.806  0.00  0.00     0.163 HD
ENDBRANCH   3  11
BRANCH   7  16
ATOM     16  O11 M00 d   1      -1.547  -5.866  10.360  0.00  0.00    -0.289 OA
BRANCH  16  17
ATOM     17  C12 M00 d   1      -1.415  -4.833  11.287  0.00  0.00     0.185 A 
ATOM     18  C13 M00 d   1      -0.280  -4.024  11.179  0.00  0.00     0.061 A 
ATOM     19  C18 M00 d   1      -0.180  -3.026  12.146  0.00  0.00     0.089 A 
ATOM     20  C14 M00 d   1       0.718  -4.149  10.188  0.00  0.00     0.031 A 
ATOM     21  N19 M00 d   1      -1.097  -2.860  13.108  0.00  0.00    -0.224 NA
ATOM     22  C17 M00 d   1       0.923  -2.177  12.111  0.00  0.00     0.045 A 
ATOM     23  C20 M00 d   1      -2.137  -3.707  13.115  0.00  0.00     0.201 A 
ATOM     24  N21 M00 d   1      -2.347  -4.703  12.253  0.00  0.00    -0.200 NA
ATOM     25  C16 M00 d   1       1.929  -2.287  11.139  0.00  0.00     0.118 A 
ATOM     26  C15 M00 d   1       1.807  -3.274  10.152  0.00  0.00     0.117 A 
BRANCH  25  27
ATOM     27  O22 M00 d   1       3.047  -1.496  11.112  0.00  0.00    -0.326 OA
ATOM     28  C23 M00 d   1       4.140  -1.851  11.950  0.00  0.00     0.181 C 
ENDBRANCH  25  27
BRANCH  26  29
ATOM     29  O24 M00 d   1       2.687  -3.537   9.136  0.00  0.00    -0.326 OA
ATOM     30  C25 M00 d   1       3.487  -4.704   9.286  0.00  0.00     0.181 C 
ENDBRANCH  26  29
ENDBRANCH  16  17
ENDBRANCH   7  16
TORSDOF 5
